*SPICE MODEL OF BJTs

.model TIP41 NPN (IS=1e-14 VAF=100 BF=50 IKF=0.1 CJC=100e-12 CJE=200e-12 TR=100e-9 TF=500e-12)